49
	Energy:     243.0241925
V         -0.36213        1.68340       -1.58227
S          0.99098        2.87664       -3.14267
S          1.14264       -0.16461       -1.79810
S          0.88943        2.61416        0.24263
S         -1.81531        3.57363       -1.39755
S         -1.60328        0.83944       -3.43522
S         -1.73911        0.45244       -0.04791
C          2.54610        2.14624       -2.61476
C          2.61428        0.84671       -2.04656
C          3.73520        2.88594       -2.77362
C          3.87440        0.33799       -1.66821
C         -0.55748        3.24802        1.10255
C         -1.72137        3.65463        0.39954
C         -0.54663        3.32856        2.50943
C         -2.83168        4.11856        1.13340
C         -2.67537       -0.55797       -1.20467
C         -2.59903       -0.41255       -2.61491
C         -3.53532       -1.54387       -0.67110
C          5.04806        1.08904       -1.84027
C          4.97801        2.36210       -2.38976
S          4.18440       -1.19967       -0.97847
S          6.46318        0.28063       -1.32295
S          3.86913        4.46340       -3.43005
S          6.28759        3.42478       -2.67541
C         -3.36082       -1.27950       -3.42928
C         -4.19832       -2.25923       -2.87688
C         -4.29297       -2.38466       -1.50008
S         -3.80571       -1.86506        0.99162
S         -3.40137       -1.28893       -5.14378
S         -5.02808       -3.19467       -4.04444
S         -5.27475       -3.49399       -0.64497
C         -2.80186        4.19110        2.53479
C         -1.66013        3.79890        3.22162
S          0.74912        2.89144        3.54179
S         -4.32929        4.64205        0.48691
S         -4.25324        4.77889        3.22178
S         -1.43284        3.81411        4.91661
C          0.13758        3.22149        5.07921
S          0.83438        3.03101        6.31341
C         -5.21272        5.05689        1.86332
S         -6.55188        5.55828        1.87607
C          5.85965       -1.19499       -0.77493
S          6.63825       -2.26502       -0.23291
C          5.52545        4.77072       -3.34722
S          6.17418        5.97083       -3.77611
C         -4.47941       -2.53684       -5.49596
S         -4.86190       -2.96574       -6.80543
C         -4.93264       -3.11978        0.96219
S         -5.50889       -3.75255        2.10783
